Version 4
SHEET 1 1288 680
WIRE 0 16 -96 16
WIRE 96 16 80 16
WIRE 176 16 176 -48
WIRE 176 16 160 16
WIRE 208 16 176 16
WIRE 400 16 288 16
WIRE 640 16 640 -48
WIRE 640 16 496 16
WIRE 720 16 640 16
WIRE 896 16 800 16
WIRE -96 32 -96 16
WIRE 400 48 336 48
WIRE 640 48 496 48
WIRE 896 64 896 16
WIRE -96 160 -96 112
WIRE 336 176 336 48
WIRE 896 240 896 144
WIRE -96 352 -96 240
WIRE 16 352 -96 352
WIRE 336 352 336 256
WIRE 336 352 96 352
WIRE 640 352 640 48
WIRE 720 352 640 352
WIRE 896 352 896 304
WIRE 896 352 800 352
WIRE 336 432 336 352
FLAG 336 432 0
FLAG 176 -48 V_in
FLAG 640 -48 V_L
SYMBOL voltage -96 144 R0
WINDOW 3 20 94 Left 2
WINDOW 123 20 122 Left 2
WINDOW 39 0 0 Left 0
SYMATTR InstName V_S
SYMATTR Value SINE(0 50 5meg 0)
SYMATTR Value2 AC 50 0
SYMBOL res 96 0 R90
WINDOW 0 0 56 VBottom 2
WINDOW 3 61 56 VBottom 2
SYMATTR InstName R1
SYMATTR Value {R_S}
SYMBOL res 880 48 R0
WINDOW 3 33 86 Left 2
SYMATTR InstName R_L
SYMATTR Value {R_L}
SYMBOL tline 448 32 R0
SYMATTR InstName T1
SYMATTR Value Td=260ns Z0=50
SYMBOL cap 160 0 R90
WINDOW 0 0 32 VBottom 2
WINDOW 3 61 32 VBottom 2
SYMATTR InstName C1
SYMATTR Value {C_S}
SYMBOL cap 880 240 R0
WINDOW 3 25 54 Left 2
SYMATTR InstName C_L
SYMATTR Value {C_L}
SYMBOL res 304 0 R90
WINDOW 0 0 56 VBottom 2
WINDOW 3 32 56 VTop 2
SYMATTR InstName R2
SYMATTR Value {R_SENSE}
SYMBOL res 816 0 R90
WINDOW 0 0 56 VBottom 2
WINDOW 3 32 56 VTop 2
SYMATTR InstName R3
SYMATTR Value {R_SENSE}
SYMBOL res -112 16 R0
SYMATTR InstName R5
SYMATTR Value {R_SENSE}
SYMBOL res 112 336 R90
WINDOW 0 0 56 VBottom 2
WINDOW 3 32 56 VTop 2
SYMATTR InstName R6
SYMATTR Value {R_SENSE}
SYMBOL res 320 160 R0
SYMATTR InstName R7
SYMATTR Value {R_SENSE}
SYMBOL res 816 336 R90
WINDOW 0 0 56 VBottom 2
WINDOW 3 32 56 VTop 2
SYMATTR InstName R8
SYMATTR Value {R_SENSE}
TEXT -112 520 Left 2 !.param R_S=20 C_S=1n R_L=200 C_L=64p R_SENSE=1m
TEXT -104 608 Left 2 !.tran 0 20u 0 10n
TEXT -96 576 Left 2 !;ac dec 1000 1k 100meg
