Version 4
SHEET 1 1632 696
WIRE 208 -32 160 -32
WIRE 384 -32 288 -32
WIRE 1280 -32 1232 -32
WIRE 1456 -32 1360 -32
WIRE 0 64 -80 64
WIRE 160 64 160 -32
WIRE 160 64 80 64
WIRE 1072 64 992 64
WIRE 1232 64 1232 -32
WIRE 1232 64 1152 64
WIRE -128 96 -80 64
WIRE 240 112 240 80
WIRE 1312 112 1312 80
WIRE 160 128 160 64
WIRE 208 128 160 128
WIRE 1232 128 1232 64
WIRE 1280 128 1232 128
WIRE 384 144 384 -32
WIRE 384 144 272 144
WIRE 448 144 384 144
WIRE 992 144 992 64
WIRE 992 144 928 144
WIRE 1456 144 1456 -32
WIRE 1456 144 1344 144
WIRE 1520 144 1456 144
WIRE 208 160 160 160
WIRE 1280 160 1232 160
WIRE 240 208 240 176
WIRE 1312 208 1312 176
WIRE -80 224 -128 176
WIRE 0 224 -80 224
WIRE 160 224 160 160
WIRE 160 224 80 224
WIRE 992 224 992 144
WIRE 1072 224 992 224
WIRE 1232 224 1232 160
WIRE 1232 224 1152 224
WIRE 736 272 736 240
WIRE -432 320 -432 288
WIRE -304 320 -304 288
WIRE 160 320 160 224
WIRE 1232 320 1232 224
WIRE 736 416 736 352
WIRE -432 480 -432 400
WIRE -304 480 -304 400
WIRE 160 480 160 400
WIRE 1232 480 1232 400
FLAG 160 480 0
FLAG 448 144 V_dmo
FLAG -304 288 V-
FLAG -432 288 V+
FLAG 240 80 V+
FLAG 240 208 V-
FLAG -304 480 0
FLAG -432 480 0
FLAG 1232 480 0
FLAG 1520 144 V_cmo
FLAG 1312 80 V+
FLAG 1312 208 V-
FLAG 928 144 V_cm
FLAG 736 416 0
FLAG 736 240 V_cm
DATAFLAG 1456 144 ""
DATAFLAG 368 144 ""
SYMBOL OpAmps\\AD744 240 80 R0
SYMATTR InstName U1
SYMBOL res 96 48 R90
WINDOW 0 0 56 VBottom 2
WINDOW 3 32 56 VTop 2
SYMATTR InstName R1
SYMATTR Value {Rin*(1+TOL_POS)}
SYMATTR SpiceLine tol=-0.01
SYMBOL res 96 208 R90
WINDOW 0 0 56 VBottom 2
WINDOW 3 32 56 VTop 2
SYMATTR InstName R2
SYMATTR Value {Rin*(1+TOL_NEG)}
SYMATTR SpiceLine tol=-0.01
SYMBOL res 192 -16 R270
WINDOW 0 32 56 VTop 2
WINDOW 3 0 56 VBottom 2
SYMATTR InstName R3
SYMATTR Value {Rf*(1+TOL_POS)}
SYMATTR SpiceLine tol=+0.01
SYMBOL res 144 304 R0
SYMATTR InstName R4
SYMATTR Value {Rf*(1+TOL_NEG)}
SYMATTR SpiceLine tol=+0.01
SYMBOL voltage -304 304 R0
WINDOW 123 0 0 Left 0
WINDOW 39 0 0 Left 0
SYMATTR InstName V1
SYMATTR Value -15V
SYMBOL voltage -432 304 R0
WINDOW 123 0 0 Left 0
WINDOW 39 0 0 Left 0
SYMATTR InstName V2
SYMATTR Value 15V
SYMBOL OpAmps\\AD744 1312 80 R0
SYMATTR InstName U2
SYMBOL res 1168 48 R90
WINDOW 0 0 56 VBottom 2
WINDOW 3 32 56 VTop 2
SYMATTR InstName R5
SYMATTR Value {Rin}
SYMATTR SpiceLine tol=0
SYMBOL res 1168 208 R90
WINDOW 0 0 56 VBottom 2
WINDOW 3 32 56 VTop 2
SYMATTR InstName R6
SYMATTR Value {Rin}
SYMATTR SpiceLine tol=0
SYMBOL res 1264 -16 R270
WINDOW 0 32 56 VTop 2
WINDOW 3 0 56 VBottom 2
SYMATTR InstName R7
SYMATTR Value {Rf*(1+TOL_POS)}
SYMATTR SpiceLine tol=0
SYMBOL res 1216 304 R0
SYMATTR InstName R8
SYMATTR Value {Rf*(1+TOL_NEG)}
SYMATTR SpiceLine tol=0
SYMBOL voltage 736 256 R0
WINDOW 3 21 102 Left 2
WINDOW 123 24 124 Left 2
WINDOW 39 0 0 Left 0
SYMATTR Value 10
SYMATTR InstName V4
SYMBOL voltage -128 80 R0
WINDOW 3 33 94 Left 2
WINDOW 123 17 106 Left 2
WINDOW 39 0 0 Left 0
SYMATTR Value 200m
SYMATTR InstName V3
TEXT 16 584 Left 2 !.param Rin=4.7k
TEXT 16 616 Left 2 !.param Rf=270k
TEXT 1200 -160 Left 2 ;Common-Mode Gain
TEXT 136 -152 Left 2 ;Differential-Mode Gain
TEXT 16 648 Left 2 !.tran 0 20u 0 1n
TEXT 272 576 Left 2 !.param TOL_POS=0.01
TEXT 272 616 Left 2 !.param TOL_NEG= -0.01
TEXT 16 680 Left 2 !.op
